
 OpenBabel11252110413D

 50 50  0  0  0  0  0  0  0  0999 V2000
    2.0490   -1.2018   -1.6934 C   0  0  0  0  0  0  0  0  0  0  0  0
    1.1550   -0.4619   -0.7270 C   0  0  0  0  0  0  0  0  0  0  0  0
    0.2973   -1.0457    0.1481 C   0  0  0  0  0  0  0  0  0  0  0  0
    0.2270   -2.5039    0.3140 C   0  0  0  0  0  0  0  0  0  0  0  0
    1.2227   -3.3127    0.7294 C   0  0  0  0  0  0  0  0  0  0  0  0
    1.1624   -4.7754    0.8932 C   0  0  0  0  0  0  0  0  0  0  0  0
   -0.1115   -5.5112    0.5319 C   0  0  0  0  0  0  0  0  0  0  0  0
    2.2381   -5.4632    1.3545 C   0  0  0  0  0  0  0  0  0  0  0  0
    2.2595   -6.9078    1.5658 C   0  0  0  0  0  0  0  0  0  0  0  0
    3.2967   -7.6403    2.0089 C   0  0  0  0  0  0  0  0  0  0  0  0
    3.2583   -9.0988    2.2008 C   0  0  0  0  0  0  0  0  0  0  0  0
    2.2952   -9.9179    1.3682 C   0  0  0  0  0  0  0  0  0  0  0  0
    4.0837   -9.6754    3.1017 C   0  0  0  0  0  0  0  0  0  0  0  0
    4.1046  -11.1318    3.4009 C   0  0  0  0  0  0  0  0  0  0  0  0
    3.7067  -12.0160    2.6668 O   0  0  0  0  0  0  0  0  0  0  0  0
    4.6202  -11.3821    4.6234 O   0  0  0  0  0  0  0  0  0  0  0  0
   -0.7346   -0.2135    0.9602 C   0  0  0  0  0  0  0  0  0  0  0  0
   -2.1753   -0.7689    0.8417 C   0  0  0  0  0  0  0  0  0  0  0  0
   -0.3444   -0.2097    2.4537 C   0  0  0  0  0  0  0  0  0  0  0  0
   -0.8108    1.2554    0.4547 C   0  0  0  0  0  0  0  0  0  0  0  0
    0.5633    1.8457    0.1956 C   0  0  0  0  0  0  0  0  0  0  0  0
    1.2743    1.0412   -0.8818 C   0  0  0  0  0  0  0  0  0  0  0  0
    1.8033   -2.2611   -1.7961 H   0  0  0  0  0  0  0  0  0  0  0  0
    3.0951   -1.1126   -1.3854 H   0  0  0  0  0  0  0  0  0  0  0  0
    1.9495   -0.7676   -2.6955 H   0  0  0  0  0  0  0  0  0  0  0  0
   -0.7505   -2.9075    0.0778 H   0  0  0  0  0  0  0  0  0  0  0  0
    2.1806   -2.8517    0.9705 H   0  0  0  0  0  0  0  0  0  0  0  0
   -0.8969   -4.8910    0.1032 H   0  0  0  0  0  0  0  0  0  0  0  0
   -0.5393   -5.9878    1.4217 H   0  0  0  0  0  0  0  0  0  0  0  0
    0.0968   -6.2819   -0.2201 H   0  0  0  0  0  0  0  0  0  0  0  0
    3.1593   -4.9343    1.5951 H   0  0  0  0  0  0  0  0  0  0  0  0
    1.3245   -7.4207    1.3643 H   0  0  0  0  0  0  0  0  0  0  0  0
    4.2275   -7.1394    2.2718 H   0  0  0  0  0  0  0  0  0  0  0  0
    1.7687   -9.3361    0.6074 H   0  0  0  0  0  0  0  0  0  0  0  0
    1.5395  -10.3875    2.0069 H   0  0  0  0  0  0  0  0  0  0  0  0
    2.8300  -10.6929    0.8087 H   0  0  0  0  0  0  0  0  0  0  0  0
    4.7694   -9.0664    3.6783 H   0  0  0  0  0  0  0  0  0  0  0  0
    4.8252  -10.5984    5.1627 H   0  0  0  0  0  0  0  0  0  0  0  0
   -2.2815   -1.7517    1.3128 H   0  0  0  0  0  0  0  0  0  0  0  0
   -2.4805   -0.8601   -0.2074 H   0  0  0  0  0  0  0  0  0  0  0  0
   -2.8936   -0.1033    1.3364 H   0  0  0  0  0  0  0  0  0  0  0  0
   -0.3825   -1.2171    2.8827 H   0  0  0  0  0  0  0  0  0  0  0  0
   -1.0321    0.4154    3.0362 H   0  0  0  0  0  0  0  0  0  0  0  0
    0.6675    0.1778    2.6109 H   0  0  0  0  0  0  0  0  0  0  0  0
   -1.3490    1.8843    1.1755 H   0  0  0  0  0  0  0  0  0  0  0  0
   -1.3887    1.3017   -0.4795 H   0  0  0  0  0  0  0  0  0  0  0  0
    1.1591    1.8574    1.1152 H   0  0  0  0  0  0  0  0  0  0  0  0
    0.4685    2.8892   -0.1285 H   0  0  0  0  0  0  0  0  0  0  0  0
    2.3323    1.3300   -0.8849 H   0  0  0  0  0  0  0  0  0  0  0  0
    0.8644    1.3196   -1.8618 H   0  0  0  0  0  0  0  0  0  0  0  0
  1  2  1  0  0  0  0
  1 23  1  0  0  0  0
  1 24  1  0  0  0  0
  1 25  1  0  0  0  0
  2  3  2  0  0  0  0
  2 22  1  0  0  0  0
  3  4  1  0  0  0  0
  3 17  1  0  0  0  0
  4  5  2  0  0  0  0
  4 26  1  0  0  0  0
  5  6  1  0  0  0  0
  5 27  1  0  0  0  0
  6  7  1  0  0  0  0
  6  8  2  0  0  0  0
  7 28  1  0  0  0  0
  7 29  1  0  0  0  0
  7 30  1  0  0  0  0
  8  9  1  0  0  0  0
  8 31  1  0  0  0  0
  9 10  2  0  0  0  0
  9 32  1  0  0  0  0
 10 11  1  0  0  0  0
 10 33  1  0  0  0  0
 11 12  1  0  0  0  0
 11 13  2  0  0  0  0
 12 34  1  0  0  0  0
 12 35  1  0  0  0  0
 12 36  1  0  0  0  0
 13 14  1  0  0  0  0
 13 37  1  0  0  0  0
 14 15  2  0  0  0  0
 14 16  1  0  0  0  0
 16 38  1  0  0  0  0
 17 18  1  0  0  0  0
 17 19  1  0  0  0  0
 17 20  1  0  0  0  0
 18 39  1  0  0  0  0
 18 40  1  0  0  0  0
 18 41  1  0  0  0  0
 19 42  1  0  0  0  0
 19 43  1  0  0  0  0
 19 44  1  0  0  0  0
 20 21  1  0  0  0  0
 20 45  1  0  0  0  0
 20 46  1  0  0  0  0
 21 22  1  0  0  0  0
 21 47  1  0  0  0  0
 21 48  1  0  0  0  0
 22 49  1  0  0  0  0
 22 50  1  0  0  0  0
M  END
$$$$
